#======================================================================

# CRYSTAL DATA

#----------------------------------------------------------------------

_pd_phase_name                         'LiFePO4'
_cell_length_a                         10.320(1)
_cell_length_b                         6.002(1)
_cell_length_c                         4.6885(3)
_cell_angle_alpha                      90
_cell_angle_beta                       90
_cell_angle_gamma                      90
_symmetry_space_group_name_H-M         'P n m a'
_symmetry_Int_Tables_number            62

loop_
_symmetry_equiv_pos_as_xyz
   'x, y, z'
   '-x, -y, -z'
   '-x+1/2, -y, z+1/2'
   'x+1/2, y, -z+1/2'
   '-x, y+1/2, -z'
   'x, -y+1/2, z'
   'x+1/2, -y+1/2, -z+1/2'
   '-x+1/2, y+1/2, z+1/2'

loop_
   _atom_site_label
   _atom_site_occupancy
   _atom_site_fract_x
   _atom_site_fract_y
   _atom_site_fract_z
   _atom_site_thermal_displace_type
   _atom_site_B_iso_or_equiv
   _atom_site_type_symbol
   Li       1    0            0            0           Biso  1.5   Li
   Fe       1    0.282(1)     0.25         0.974(1)    Biso  0.54  Fe
   P        1    0.094(1)     0.25         0.417(1)    Biso  0.5   P
   O1       1    0.098(1)     0.25         0.744(1)    Biso  0.5   O
   O2       1    0.457(1)     0.25         0.206(1)    Biso  0.7   O
   O3       1    0.166(1)     0.047(1)     0.285(1)    Biso  0.6   O
