#======================================================================

# CRYSTAL DATA

#----------------------------------------------------------------------

_pd_phase_name                         'Li14Zn(GeO4)4'
_cell_length_a                         10.828(2)
_cell_length_b                         6.251(1)
_cell_length_c                         5.140(1)
_cell_angle_alpha                      90
_cell_angle_beta                       90
_cell_angle_gamma                      90
_symmetry_space_group_name_H-M         'P n m a'
_symmetry_Int_Tables_number            62

loop_
_symmetry_equiv_pos_as_xyz
   'x, y, z'
   '-x, -y, -z'
   '-x+1/2, -y, z+1/2'
   'x+1/2, y, -z+1/2'
   '-x, y+1/2, -z'
   'x, -y+1/2, z'
   'x+1/2, -y+1/2, -z+1/2'
   '-x+1/2, y+1/2, z+1/2'

loop_
   _atom_site_label
   _atom_site_occupancy
   _atom_site_fract_x
   _atom_site_fract_y
   _atom_site_fract_z
   _atom_site_thermal_displace_type
   _atom_site_B_iso_or_equiv
   _atom_site_type_symbol
   Li1      1    0.206(4)     0.25         0.978(9)    Biso  4     Li
   Li2      1    0            0            0           Biso  8     Li
   LZ1      1    0.426(1)     0.75         0.163(3)    Biso  1.6   Li
   LZ2      1    0.1653(3)    0.9977(8)    0.3297(9)   Biso  0.8   Li
   Ge       1    0.4131(1)    0.25         0.3396(2)   Biso  0.82  Ge
   O1       1    0.0880(6)    0.75         0.1778(9)   Biso  0.8   O
   O2       1    0.0633(6)    0.25         0.2789(9)   Biso  0.9   O
   O3       1    0.3353(5)    0.0245(9)    0.2185(9)   Biso  1.5   O
